**NOTICE**

This report was prepared as an account of work sponsored by an agency of
the United States government. Neither the United States government nor
any agency thereof, nor any of their employees, makes any warranty,
express or implied, or assumes any legal liability or responsibility for
the accuracy, completeness, or usefulness of any information, apparatus,
product, or process disclosed, or represents that its use would not
infringe privately owned rights. Reference herein to any specific
commercial product, process, or service by trade name, trademark,
manufacturer, or otherwise does not necessarily constitute or imply its
endorsement, recommendation, or favoring by the United States government
or any agency thereof. The views and opinions of authors expressed
herein do not necessarily state or reflect those of the United States
government or any agency thereof.

    | This report is available at no cost from the National Renewable
      Energy
    | Laboratory (NREL) at www.nrel.gov/publications.

    Available electronically at http://www.osti.gov/scitech

    | Available for a processing fee to U.S. Department of Energy
    | and its contractors, in paper, from:

    | U.S. Department of Energy
    | Office of Scientific and Technical Information

    | P.O. Box 62
    | Oak Ridge, TN 37831-0062
    | phone: 865.576.8401
    | fax: 865.576.5728
    | email:
      `mailto:reports@adonis.osti.gov <mailto:reports@adonis.osti.gov>`__

    Available for sale to the public, in paper, from:

    | U.S. Department of Commerce
    | National Technical Information Service
    | 5285 Port Royal Road
    | Springfield, VA 22161
    | phone: 800.553.6847
    | fax: 703.605.6900
    | email: orders@ntis.fedworld.gov
    | online ordering: http://www.ntis.gov/help/ordermethods.aspx

    *Cover Photos: (left to right) photo by Pat Corkery, NREL 16416,
    photo from SunEdison, NREL 17423, photo by Pat Corkery, NREL 16560,
    photo by Dennis Schroeder, NREL 17613, photo by Dean Armstrong, NREL
    17436, photo by Pat Corkery, NREL 17721.*

|image0| Printed on paper containing at least 50% wastepaper, including
10% post consumer waste.

Preface

This manual offers both a quick reference guide and a more in-depth
theory guide for the SubDyn software program. It is intended to be used
by the general user in combination with the FAST and HydroDyn manuals.
The manual will be updated as new releases are issued and as needed to
provide further information on advancements or modifications to the
software.

**
**

Acknowledgments

The authors would like to acknowledge Huimin Song, a post-doctoral
researcher at the National Renewable Energy Laboratory, for her
contribution to the development of SubDyn. Amy Robertson and Fabian
Wendt provided helpful feedback on the document, and Braulio Barahona
produced some of the graphics. We also are grateful to the U.S.
Department of Energy Wind and Water Power Program for supporting the
development of this software.

Nomenclature

Damping ratio (percent of critical) or diagonal damping matrix

Eigenfrequency

Material density

*L*\ ×\ *L* matrix representing the C-B eigenmodes

*L*\ ×\ *m* matrix representing the retained C-B eigenmodes

*L*\ ×\ *R* matrix representing the interior nodal displacements for a
static, rigid-body motion of the boundary nodes

Matrix representing the interior nodal displacements for a static,
rigid-body motion of the boundary nodes, after the restrained degrees of
freedoms are removed

*L*\ ×\ *L* diagonal matrix representing the eigenfrequencies of all C-B
eigenmodes

*m*\ ×\ *m* diagonal matrix representing the eigenfrequencies of the
retained C-B eigenmodes

? Poisson’s ratio

*A* State matrix in state-space state equation

AF Apparent fixity

Member shear area along local *x*-axis

Member shear area along local *y*-axis

Member cross-sectional area, normal to local *z*-axis

*B* Input matrix in state-space state equation

C-B Craig Bampton

System damping matrix

State matrix in state-space output equation for ElastoDyn

State matrix in state-space output equation for HydroDyn

Damping matrix partition referred to the *L* interior degrees of freedom
(*L*\ ×\ *L*)

Damping matrix partition referred to the *L* and *R* degrees of freedom
(*L*\ ×\ *R*)

Damping matrix partition referred to the *R* and *L* boundary degrees of
freedom (*R*\ ×\ *L*)

Damping matrix partition referred to the *R* boundary degrees of freedom
(*R*\ ×\ *R*)

HydroDyn’s linear damping matrix heave element

Time step in the integration algorithm

Maximum time-step recommended

*D\ :sub:`i`* Member inner diameter

*D\ :sub:`o`* Member outer diameter

Input transmission matrix in state-space output equation for ElastoDyn

Input transmission matrix in state-space output equation for HydroDyn

DOF Degree of freedom

Member direction cosine 3x3 matrix, transforming local coordinates to
global coordinates

*E* Young’s modulus

*f* Frequency

Maximum frequency

*F* Vector of external forces and moments

Array of self-weight forces and moments

Array of external (hydrodynamic) forces and moments at the interior
nodes

Interior forces and moments (*L*\ ×1) array accounting for all interior
modes =

Array of self-weight gravity forces and moments at the interior nodes

Interior forces and moments (*L*\ ×1) array accounting for only the
retained modes =

Array of external (hydrodynamic) forces and moments at the boundary
nodes

Array of external (hydrodynamic) forces and moments at the interface
nodes

Substructure base reaction forces and moments, applied to the
substructure by the restraint

Array of self-weight forces and moments at the boundary nodes

Array of self-weight forces and moments at the interface nodes

TP reaction forces and moments, applied to the substructure by the
remainder of the turbine system

TP forces and moments after C-B reduction, =

*F\ :sub:`X`* Substructure base reaction force along global *X*-axis; or

forcing vector in state-space state equation

*F\ :sub:`Y`* Substructure base reaction force along global *Y*-axis

*F\ :sub:`Y1`* Forcing vector in state-space output equation for
ElastoDyn

*F\ :sub:`Y2`* Forcing vector in state-space output equation for
HydroDyn

*F\ :sub:`Z`* Substructure base reaction force along global *Z*-axis

Element inertia forces

Element static forces

FEA Finite-element analysis

FEM Finite-element method

Gravity, unsigned magnitude

*G* Shear modulus

Member or element index

Unit vector along the element local *x*-axis

Identity matrix

Unit vector along the global *X*-axis

Unit vector along the element local *y*-axis

Generic second area moment of inertia

Unit vector along the global *Y*-axis

Second area moment of inertia about the local, principal *x*-axis

Second area moment of inertia about the local *x*-axis

Element stiffness matrix (12x12) in global coordinate system

Element stiffness matrix (12x12)

Unit vector along the element local *z*-axis

Shear area factor along local *x*-axis

Shear area factor along local *y*-axis

System stiffness matrix

Unit vector along the global *Z*-axis

Matrix partition after C-B system reduction =

after removal of constrained DOF rows and columns

Substructure equivalent stiffness matrix referred to the TP reference
point, =

Stiffness matrix partition referred to the *L* interior DOFs
(*L*\ ×\ *L*)

Stiffness matrix partition referred to the *L* and *R* DOFs
(*L*\ ×\ *R*)

Stiffness matrix partition referred to the *R* and *L* boundary DOFs
(*R*\ ×\ *L*)

Stiffness matrix partition referred to the R boundary DOFs (*R*\ ×\ *R*)

Shear correction factor along local *x*-axis

Shear correction factor along local *y*-axis

Substructure equivalent heave stiffness

*L* Interior nodes’ DOFs

LFEB Linear frame finite-element beam model

Length of element

Length of element projection in the global *XY* plane

Element stiffness matrix (12x12)

Element stiffness matrix (12x12) in global coordinate system; or

number of retained C-B modes

System mass matrix

MSL Mean sea level

Matrix partition after C-B system reduction =

after removal of constrained DOF rows and columns

Substructure equivalent mass matrix referred to the TP reference point =

Matrix partition after C-B system reduction =

after removal of constrained DOF rows and columns

Matrix partition =

Mass matrix partition referred to the *L* interior DOFs (*L*\ ×\ *L*)

Mass matrix partition referred to the *L* and *R* DOFs (*L*\ ×\ *R*)

Matrix partition after C-B system reduction =

Matrix partition =

Mass matrix partition referred to the *R* and *L* boundary DOFs
(*R*\ ×\ *L*)

Mass matrix partition referred to the *R* boundary DOFs (*R*\ ×\ *R*)

*M\ :sub:`X`* Substructure base reaction moment along global *X*-axis

*M\ :sub:`Y`* Substructure base reaction moment along global *Y*-axis

*M\ :sub:`Z`* Substructure base reaction moment along global *Z*-axis

6x6 mass matrix from ElastoDyn

Substructure equivalent heave mass

The n\ :sup:`th` time step

Number of interface nodes

Number of restrained nodes

*p* State-space parameters

Modal coefficients for all interior nodes’ DOF modes

Modal coefficients for all interior nodes’ DOF modes assumed operating
in static fashion

Modal coefficients for the retained modes

Modal coefficients for the retained modes assumed operating in static
fashion

*R* Boundary nodes’ DOFs

Reaction forces at the base of the substructure

*SSI* Soil-structure interaction

time; or

thickness

TP Transition piece

Matrix to transform interface nodes’ DOFs to TP DOFs; matrix

Auxiliary matrix () to link restrained nodes’ forces and moments to the
substructure base reaction vector

*u, u\ :sub:`i`* State-space formulation inputs, generic i-th input

Vector of nodal displacements

Vector of element nodes’ displacements (DOFs)

Vector of interior nodes’ displacements (DOFs)

Time-varying components of the interior nodes’ displacements (DOFs)

Static components of the interior nodes’ displacements (DOFs) (*L*\ ×1)

Static components of the interior nodes’ displacements (DOFs) (*L*\ ×1),
but obtained considering the first *m* C-B eigenmodes only

Vector of boundary nodes’ displacements (DOFs)

Vector of interface nodes’ displacements (DOFs)

Element nodes’ displacements (DOFs)

Time-varying components of the element nodes’ displacements (DOFs)

Static components of the element nodes’ displacements (DOFs)

Static components of the element nodes’ displacements (DOFs), but
obtained considering the first *m* C-B eigenmodes only

TP reference point displacements (DOFs)

Time-varying components of the TP reference point displacements (DOFs)

Static components of the TP reference point displacements (DOFs)

*x, x*\ :sub:`i` State-space formulation states, generic i-th state; or

generic local *x*-coordinate

Element local *x*-coordinates

*X* Global or substructure coordinate; or

state-space state equation(s)

Member end node *X*-coordinate in global coordinate system

Member start node *X*-coordinate in global coordinate system

*X*-coordinate in global coordinate system of the generic interface node

*X\ :sub:`SS`* Global or substructure coordinate

TP reference point *X*-coordinate in global coordinate system

*y, y\ :sub:`i`* State-space formulation outputs, generic i-th output;
or

generic *y*-coordinate

Element local *y*-coordinates

*Y* Global or substructure coordinates; or

state-space output equation(s)

Member end node *Y*-coordinate in global coordinate system

*Y*-coordinate in global coordinate system of the generic interface node

Member start node *Y*-coordinate in global coordinate system

*Y\ :sub:`SS`* Global or substructure coordinates

TP reference point *Y*-coordinate in global coordinate system

*Y\ :sub:`1`* State-space output equation for ElastoDyn

*Y\ :sub:`2`* State-space output equation for HydroDyn

Element local *z*-coordinate

*Z* Global or substructure coordinate

Member end node *Z*-coordinate in global coordinate system

*Z*-coordinate in global coordinate system of the generic interface node

Member start node *Z*-coordinate in global coordinate system

*Z\ :sub:`SS`* Global or substructure coordinate

TP reference point *Z*-coordinate in global coordinate system

Table of Contents

`Preface 4 <#_Toc413741142>`__

`Acknowledgments 5 <#_Toc413741143>`__

`Nomenclature 6 <#_Toc413741144>`__

`1 Introduction 14 <#_Toc413741145>`__

`2 Running SubDyn 17 <#_Toc413741146>`__

`2.1 Downloading the SubDyn Software 17 <#_Toc413741147>`__

`2.1.1 Stand-Alone SubDyn Archive 17 <#_Toc413741148>`__

`2.1.2 FAST Archive 17 <#_Toc413741149>`__

`2.2 Running SubDyn 18 <#_Toc413741150>`__

`2.2.1 Running the Stand-Alone SubDyn Program 18 <#_Toc413741151>`__

`2.2.2 Running SubDyn Coupled to FAST 18 <#_Toc413741152>`__

`3 Input Files 19 <#_Toc413741153>`__

`3.1 Units 19 <#_Toc413741154>`__

`3.2 SubDyn Driver Input File 19 <#_Toc413741155>`__

`3.3 SubDyn Primary Input File 20 <#_Toc413741156>`__

`3.3.1 Simulation Controls 21 <#_Toc413741157>`__

`3.3.2 FEA and Craig-Bampton Parameters 21 <#_Toc413741158>`__

`3.3.3 Structure Joints 22 <#_Toc413741159>`__

`3.3.4 Base Reaction Joints 22 <#_Toc413741160>`__

`3.3.5 Interface Joints 23 <#_Toc413741161>`__

`3.3.6 Members 23 <#_Toc413741162>`__

`3.3.7 Member Cross-Section Properties 23 <#_Toc413741163>`__

`3.3.8 Member Cosine Matrices COSM (i,j) 24 <#_Toc413741164>`__

`3.3.9 Joint Additional Concentrated Masses 24 <#_Toc413741165>`__

`3.3.10 Output: Summary and Outfile 24 <#_Toc413741166>`__

`3.3.11 Member Output List 25 <#_Toc413741167>`__

`3.3.12 Output Channels- SDOutList Section 25 <#_Toc413741168>`__

`4 Output Files 26 <#_Toc413741169>`__

`4.1 Echo Files 26 <#_Toc413741170>`__

`4.2 Summary File 26 <#_Toc413741171>`__

`4.3 Results File 27 <#_Toc413741172>`__

`5 Modeling Considerations 28 <#_Toc413741173>`__

`5.1 Model Discretization 28 <#_Toc413741174>`__

`5.2 Foundations 29 <#_Toc413741175>`__

`5.3 Member Overlap 29 <#_Toc413741176>`__

`5.4 Substructure Tower/Turbine Coupling 29 <#_Toc413741177>`__

`5.5 Self-Weight Calculations 31 <#_Toc413741178>`__

`5.6 Note On Other Load Calculations 31 <#_Toc413741179>`__

`5.7 Craig-Bampton Guidelines 31 <#_Toc413741180>`__

`5.8 Integration Time Step Guidelines 32 <#_Toc413741181>`__

`6 SubDyn Theory 33 <#_Toc413741182>`__

`6.1 Overview 33 <#_Toc413741183>`__

`6.2 Integration with the FAST Modularization Framework
34 <#_Toc413741184>`__

`6.3 Coordinate Systems 35 <#_Toc413741185>`__

`6.3.1 Global and Substructure Coordinate System: or ( Figure 4)
36 <#_Toc413741186>`__

`6.3.2 Member or Element Local Coordinate System (Figure 5)
36 <#_Toc413741187>`__

`6.3.3 Local to Global Transformation 37 <#_Toc413741188>`__

`6.4 Linear Finite-Element Beam Model 38 <#_Toc413741189>`__

`6.4.1 Element Formulation 39 <#_Toc413741190>`__

`6.4.2 Self-Weight Loads 40 <#_Toc413741191>`__

`6.5 Dynamic System of Equations and C-B Reduction
42 <#_Toc413741192>`__

`6.5.1 State-Space Formulation 46 <#_Toc413741193>`__

`6.5.2 Member Force Calculation 48 <#_Toc413741194>`__

`6.5.3 Reaction Calculation 48 <#_Toc413741195>`__

`6.5.4 Time Integration 49 <#_Toc413741196>`__

`6.5.5 Static-Improvement Method 49 <#_Toc413741197>`__

`7 Known Limitations and Future Work 53 <#_Toc413741198>`__

`8 References 54 <#_Toc413741199>`__

`Appendix A. OC4 Jacket Input File (CertTest Test04)
55 <#_Toc413741200>`__

`Appendix B. OC4 Jacket Driver File 60 <#_Toc413741201>`__

`Appendix C. List of Output Channels 61 <#_Toc413741202>`__

`Appendix D. Compiling Stand-Alone SubDyn 63 <#_Toc413741203>`__

`Appendix E. Major Changes in SubDyn 64 <#_Toc413741204>`__

List of Figures

`Figure 1. SubDyn, HydroDyn, and FAST 8 coupled interaction
15 <#_Toc413741205>`__

`Figure 2. WinZip Self-Extractor main window 17 <#_Toc413741206>`__

`Figure 3. SubDyn layout within the modularization framework
34 <#_Toc413741207>`__

`Figure 4. Global (coincident with the substructure) coordinate system.
Also shown are the DOFs associated with the TP reference point.
35 <#_Toc413741208>`__

`Figure 5. The element coordinate system. The sketched member contains
four elements, and the second element is called out with nodes S and E.
37 <#_Toc413741209>`__

List of Tables

`Table 1. TP Reference Point Inputs Time-Series Data File Contents
20 <#_Toc413741210>`__

`Table C-1. List of Output Channels. 61 <#_Toc413741211>`__

1. Introduction

`SubDyn <https://nwtc.nrel.gov/SubDyn>`__ is a time-domain
structural-dynamics module for multimember fixed-bottom substructures
created by the National Renewable Energy Laboratory (NREL) through U.S.
Department of Energy Wind and Water Power Program support. The module
has been coupled into the FAST aero-hydro-servo-elastic computer-aided
engineering (CAE) tool. Substructure types supported by SubDyn include
monopiles, tripods, jackets, and other non-floating lattice-type
substructures common for offshore wind installations in shallow and
transitional water depths. SubDyn can also be used to model lattice
support structures for land-based wind turbines.

The new SubDyn module follows the requirements of the FAST
modularization framework, couples to
`OpenFAST <http://wind.nrel.gov/designcodes/simulators/fast8/>`__, and
provides new capabilities (relative to prior released versions of the
software) for modeling the dynamic loading on multimember substructures.
(Refer to Appendix E and the *changelog.txt* file that is provided in
the archives for more details about changes among different versions.)
SubDyn can also be driven as a standalone code to compute the mode
shapes, natural frequencies, and time-domain responses of substructures
under prescribed motion at the interface to the tower, uncoupled from
FAST and in the absence of external loading other than gravity.

SubDyn relies on two main engineering schematizations: (1) a linear
frame finite-element beam model (LFEB), and (2) a dynamics system
reduction via the Craig-Bampton(C-B) method, together with a
static-improvement method (SIM), greatly reducing the number of modes
needed to obtain an accurate solution. More details can be found in
Section 6, and in :cite:`song2013, damiani2013, damiani13'.

In SubDyn, the substructure is considered to be either clamped or
supported by springs at the seabed, and rigidly connected to the
transition piece (TP) at the substructure top nodes (interface nodes).
The spring constants are provided by the user to simulate
soil-structure-interaction (SSI). Other restraint formulations may be
implemented in the future. Only the substructure structural dynamics are
intended to be modeled within SubDyn. When integrated with FAST, the
structural dynamics of the TP, tower, and rotor-nacelle assembly (RNA)
are modeled within FAST’s ElastoDyn module and hydrodynamics are modeled
within FAST’s `HydroDyn <https://nwtc.nrel.gov/HydroDyn>`__ module. For
full lattice support structures or other structures with no transition
piece, however, the entire support structure up to the yaw bearing may
be modeled within SubDyn. Modeling the tower in SubDyn as opposed to
ElastoDyn, for example, allows for the possibility of including more
than the first two fore-aft and side-to-side bending modes, thus
accounting for more general flexibility of the tower and its segments.
However, for tubular towers, the structural model in ElastoDyn tends to
be more accurate because ElastoDyn considers geometric nonlinearities
not treated in SubDyn.

Loads and responses are transferred between SubDyn, HydroDyn, and
ElastoDyn via the FAST driver program (glue code) to enable
hydro-elastic interaction at each coupling time step. At the interface
nodes, the TP six degree-of-freedom (DOF) displacements (three
translations and three rotations), velocities, and accelerations are
inputs to SubDyn from ElastoDyn; and the six reaction loads at the TP
(three forces and three moments) are outputs from SubDyn to ElastoDyn.
SubDyn also outputs the local substructure displacements, velocities,
and accelerations to HydroDyn in order to calculate the local
hydrodynamic loads that become inputs for SubDyn. In addition, SubDyn
can calculate member internal reaction loads, as requested by the user
(see Figure 1).


. _flow-chart:

.. figure:: figs/flow_chart.jpg
   :width: 100%
           
   SubDyn, HydroDyn, and FAST 8 coupled interaction


The input file defines the substructure geometry, material properties,
restraints and SSI data files, finite-element resolution, number of
retained modes in the dynamics system reduction, modal damping
coefficients, and auxiliary parameters. The geometry is defined by joint
coordinates in the global reference system (inertial-frame coordinate
system shown in ), with the origin at the intersection of the
undeflected tower centerline with mean sea level (MSL) or ground level
for land-based structures. A member connects two joints; multiple
members may use a common joint. Nodes are the result of the member
refinement into multiple (***NDiv*** input parameter) elements (nodes
are located at the ends of each element, as shown in ), and they are
calculated by the module.

In the current release, the geometry of a member is defined by its outer
diameter and wall thickness (assuming a tubular geometry), and the
material properties are defined by its Young’s modulus, shear modulus,
and mass density. Member properties are specified at the joints; if
properties change from one joint to the other, they will be linearly
interpolated for the inner elements. Thus, a tapered member will be
treated as a cylindrical member with step-wise variation of its
properties. In a future release, a tapered finite-element formulation
will be implemented, and a more accurate representation of a tapered
member will become available.

The hydrodynamic loads (including buoyancy) are computed by HydroDyn and
transferred by the glue code at those nodes that are underwater
(submerged nodes). Additionally, the self-weight distributed load
components (from gravity) are calculated by SubDyn and applied at all
the nodes. Note that other load and inertial properties may be input via
the HydroDyn module input file, where marine growth and
flooding/ballasting of the members can be specified.

This document is organized as follows. Section 2 details how to obtain
the SubDyn and FAST software archives and run either the stand-alone
version of SubDyn or SubDyn coupled to FAST. Section 3 describes the
SubDyn input files. Section 4 discusses the output files generated by
SubDyn; these include echo files, a summary file, and the results file.
Section 5 provides modeling guidance when using SubDyn. The SubDyn
theory is covered in Section 6. Section outlines future work, and
Section 8 contains a list of references. Example input files are shown
in Appendices A and B. A summary of available output channels are found
in Appendix C. Instructions for compiling the stand-alone SubDyn program
are detailed in Appendix D. Appendix E tracks the major changes that
have been made to SubDyn for each public release.

1. Running SubDyn

This section discusses how to obtain and execute SubDyn from a personal
computer. Both the stand-alone version and the FAST-coupled version of
the software are considered.

1. Downloading the SubDyn Software TO REDO HIHGLIGHTED SECTIONS

There are two forms of the SubDyn software to choose from: stand alone
and coupled to the FAST simulator. Although the user may not necessarily
need both forms, he/she would likely need to be familiar with and run
the stand-alone model if building a model of the substructure from
scratch. The stand-alone version is also helpful for model
troubleshooting and may benefit users who are interested in conducting
aero-hydro-servo-elastic simulations of an offshore wind turbine. For
this reason, SubDyn can be obtained from two different repositories: one
for the stand-alone SubDyn and one for the coupled solution through
FAST.

1. Stand-Alone SubDyn Archive

Users can download the stand-alone SubDyn archive from our Web server at
`*https://nwtc.nrel.gov/SubDyn* <https://nwtc.nrel.gov/SubDyn>`__. The
file has a name similar to *SD\_v1.03.00a-rrd.exe*, but may have a
different version number. The user can then download the self-extracting
archive (.exe) to expand the archive into a folder he/she specifies.

|image2|

Figure 2. WinZip Self-Extractor main window TO REPLACE WITH CURRENT
ARCHIVE METHODS ETC.

The archive contains the ***bin***, ***CertTest***, ***Compiling***,
***Documentation***, and ***Source*** folders. The ***bin*** folder
includes the main executable file, *SubDyn\_win32.exe*, which is used to
execute the stand-alone SubDyn program. The ***CertTest*** folder
contains a collection of sample SubDyn input files and driver input
files that can be used as templates for the user’s own models. If the
user runs the *CertTest.bat* DOS script, he/she can compare the results
to the ones stored in the ***NREL\_Results*** subfolder. This manual may
be found in the ***Documentation*** folder. The ***Compiling*** folder
contains files for compiling the stand-alone *SubDyn\_win32.exe* file
with either Visual Studio or gFortran. The Fortran source code is
located in the ***Source*** folder.

1. FAST Archive

Download the FAST archive, which includes a coupling to SubDyn, from our
Web server at https://nwtc.nrel.gov/FAST8. The file has a name similar
to *FAST\_v8.08.00.exe*, but may have a different version number. Run
the downloaded self-extracting archive (*.exe*) to expand the archive
into a user-specified folder. The FAST executable file is located in the
archive’s ***bin*** folder. Example models using the NREL 5-MW reference
turbine and various substructures are located in the ***CertTest***
folder. These include Test19: OC3-Monopile, Test20: OC3-Tripod, Test21:
OC4-jacket.

1. Running SubDyn

   1. Running the Stand-Alone SubDyn Program

The stand-alone SubDyn program, *SubDyn\_win32.exe*, simulates
substructure dynamic responses of the user’s input model, without
coupling to FAST. Unlike the coupled version, the stand-alone software
requires the use of a driver file in addition to the primary SubDyn
input file. This driver file specifies inputs normally provided to
SubDyn by FAST, including motions of the TP reference point. Both the
SubDyn summary file and the results output file are available when using
the stand-alone SubDyn (see Section 4 for more information regarding the
SubDyn output files).

Run the standalone SubDyn software from a DOS command prompt by typing,
for example:

>SubDyn\_win32.exe MyDriverFile.dvr

where, *MyDriverFile.dvr* is the name of the SubDyn driver file, as
described in Section 3.2. The SubDyn primary input file is described in
Section 3.3.

1. Running SubDyn Coupled to FAST

Run the coupled FAST software from a DOS command prompt by typing, for
example:

>FAST\_win32.exe Test21.fst

where, *Test21.fst* is the name of the primary FAST input file. This
input file has a feature switch to enable or disable the SubDyn
capabilities within FAST, and a corresponding reference to the SubDyn
input file. See the documentation supplied with FAST for further
information.

1. Input Files

The user specifies the substructure model parameters, including its
geometry and properties, via a primary SubDyn input file. When used in
stand-alone mode, an additional driver input file is required. This
driver file specifies inputs normally provided to SubDyn by FAST,
including motions of the TP reference point.

No lines should be added or removed from the input files, except in
tables where the number of rows is specified.

Additional input files containing soil-structure information (*SSIfile*)
can be provided by the user specifying their paths in the main SubDyn
input file under the section titled *BASE REACTION JOINTS*.

1. Units

SubDyn uses the SI system (kg, m, s, N). Angles are assumed to be in
radians unless otherwise specified.

1. SubDyn Driver Input File

The driver input file is only needed for the stand-alone version of
SubDyn and contains inputs that are normally set by FAST, and that are
necessary to control the simulation for uncoupled models. It is possible
to provide per-time-step inputs to SubDyn, even in stand-alone mode, by
tying the driver file to an additional input file containing
time-histories of the TP motion (displacements, velocities, and
accelerations). A sample SubDyn driver input file is given in Appendix
B.

Users can set the ***Echo*** flag in this file to TRUE so that
*SubDyn\_win32.exe* echoes the contents of the driver input file (useful
for debugging errors in the driver file). The echo file has the naming
convention of ***OutRootName**.dvr.ech*. ***OutRootName*** is specified
in the SUBDYN section of the driver input file (see below).

Set the gravity constant using the ***Gravity*** parameter. SubDyn
expects a magnitude, so in SI units this would be set to 9.80665
:math:`\frac{m}{s^{2}}` for standard gravity. ***WtrDpth*** specifies
the water depth (depth of the seabed), based on the reference MSL, and
must be a value greater than zero.

***SDInputFile*** is the file name of the primary SubDyn input file.
This name should be in quotations and can contain an absolute path or a
relative path. All SubDyn-generated output files will be prefixed with
***OutRootName***. If this parameter includes a file path, the output
will be generated in that folder. ***NSteps*** specifies the number of
simulation time steps, and ***TimeStep*** specifies the time between
steps. Next, the user must specify the location of the TP reference
point ***TP\_RefPoint*** (in the global reference system). This is
normally set by FAST through the ElastoDyn input file, and it is the
so-called *platform* reference point location. When coupled to FAST, the
*platform* reference point location is identified by only one (*Z*)
coordinate. The interface joints, defined in SubDyn’s main input file,